tests/fixtures/psse_features.raw
@!IC,SBASE,REV,XFRRAT,NXFRAT,BASFRQ
0,   100.00, 33, 0, 1, 60.00     / hand-written OpenEMT importer feature case (not a vendor file)
OPENEMT IMPORTER FEATURE COVERAGE
CW=2 XFMR, 3-WINDING XFMR (CZ=2), ZIP LOAD, SWITCHED SHUNT, G+B FIXED SHUNT
0 / END OF SYSTEM-WIDE DATA, BEGIN BUS DATA
     1,'FEAT-SLACK  ', 230.0000,3,   1,   1,   1,1.02000,   0.0000
     2,'FEAT-PV     ', 230.0000,2,   1,   1,   1,1.01000,  -1.5000
     3,'FEAT-LOAD   ',  13.8000,1,   1,   1,   1,1.00000,  -4.0000
     4,'FEAT-TERT   ',  69.0000,1,   1,   1,   1,1.00000,  -3.0000
0 / END OF BUS DATA, BEGIN LOAD DATA
     3,'1 ',   1,   1,   1,    50.000,    20.000,    10.000,     4.000,     5.000,     2.000,   1,    1,  0
0 / END OF LOAD DATA, BEGIN FIXED SHUNT DATA
     2,'1 ',   1,     2.000,    30.000
0 / END OF FIXED SHUNT DATA, BEGIN GENERATOR DATA
     1,'1 ',    70.000,    25.000,   150.000,  -100.000,1.02000,     0,   200.000, 4.00000E-3, 2.00000E-1, 0.00000E+0, 0.00000E+0,1.00000,1, 100.0,   180.000,     0.000
     2,'1 ',    30.000,    10.000,   120.000,  -100.000,1.01000,     0,   100.000, 5.00000E-3, 2.50000E-1, 0.00000E+0, 0.00000E+0,1.00000,1, 100.0,    90.000,     0.000
0 / END OF GENERATOR DATA, BEGIN BRANCH DATA
     1,     2,'1 ', 8.00000E-3, 8.00000E-2, 1.60000E-2,'                    ',  600.00,  660.00,    1.00,    0.00,    0.00,    0.00,    0.00,    0.00,    0.00,    0.00,    0.00,    0.00,  0.00000,  0.00000,  0.00000,  0.00000,1,1,   0.00,   1,1.0000
0 / END OF BRANCH DATA, BEGIN TRANSFORMER DATA
     2,     3,     0,'1 ', 2, 1, 1, 0.00000E+0, 0.00000E+0,2,'CW2XFMR             ',1,   1,1.0000,   0,1.0000,   0,1.0000,   0,1.0000,'            '
 6.00000E-3, 6.00000E-2,   100.00
230.000, 230.000,   0.000,   150.00,   165.00,   180.00,    0.00,    0.00,    0.00,    0.00,    0.00,    0.00,    0.00,    0.00,    0.00, 0,      0, 1.10000, 0.90000, 1.10000, 0.90000,  33, 0, 0.00000, 0.00000,  0.000
 13.800,  13.800,   0.000
     1,     3,     4,'1 ', 1, 2, 1, 0.00000E+0, 0.00000E+0,2,'THREEWDG            ',1,   1,1.0000,   0,1.0000,   0,1.0000,   0,1.0000,'            '
 1.00000E-2, 1.00000E-1,   100.00, 2.00000E-2, 2.00000E-1,   100.00, 1.50000E-2, 1.50000E-1,   100.00,1.00000,   0.0000
1.00000, 230.000,   0.000,   200.00,   220.00,   240.00,    0.00,    0.00,    0.00,    0.00,    0.00,    0.00,    0.00,    0.00,    0.00, 0,      0, 1.10000, 0.90000, 1.10000, 0.90000,  33, 0, 0.00000, 0.00000,  0.000
1.00000,  13.800,   0.000
1.00000,  69.000,  30.000
0 / END OF TRANSFORMER DATA, BEGIN AREA DATA
0 / END OF AREA DATA, BEGIN ZONE DATA
0 / END OF ZONE DATA, BEGIN OWNER DATA
0 / END OF OWNER DATA, BEGIN FACTS DEVICE DATA
0 / END OF FACTS DEVICE DATA, BEGIN SWITCHED SHUNT DATA
     3,   2,  0,  1,1.04000,0.96000,     0, 100.0,'            ',    15.000, 3,   5.000
0 / END OF SWITCHED SHUNT DATA, BEGIN Q RECORD
Q
